1
9
.tran 10 100m
4
2
C1
I
2
L1
I
2
R1
I
1
Net-(C1-Pad1)
V
